ucte/ucte-converter/src/test/resources/eurostagHydroGen.uct
##C 2007.05.01
Generated by powsybl, 2025-01-22T14:55:04.837633166+01:00[Europe/Paris]
Case date: 2025-01-22T13:55:04.794803389Z
##N
##ZFR
F0000070              0 2 24.500 0.00000 0.00000 -607.00 -301.00 9999.99 -9999.9 9999.99 -9999.9                               H
F0000110              0 0        0.00000 0.00000 0.00000 0.00000
F0000210              0 0        0.00000 0.00000 0.00000 0.00000
F0000330              0 0        600.000 200.000 0.00000 0.00000
##L
F0000110 F0000210 0 0 3.0000 33.000 386.0000
F0000110 F0000210 1 0 3.0000 33.000 386.0000
##T
F0000070 F0000110 0 0 400.0 24.00       0.2665 11.104 0.000000 0.0000
F0000210 F0000330 0 0 158.0 400.0       0.0472 4.0497 0.000000 0.0000
##R
F0000210 F0000330 0 -15.3  2   1 158.0